 # Fcc Al oriented X=[100] Y=[010] Z=[001].
 CRYSTAL
 PRIMVEC
      3.61490000        0.00000000        0.00000000
      0.00000000        3.61490000        0.00000000
      0.00000000        0.00000000        3.61490000
 CONVVEC
      3.61490000        0.00000000        0.00000000
      0.00000000        3.61490000        0.00000000
      0.00000000        0.00000000        3.61490000
 PRIMCOORD
        4 1
13        0.00000000        0.00000000        0.00000000
13        1.80745000        1.80745000        0.00000000
13        0.00000000        1.80745000        1.80745000
13        1.80745000        0.00000000        1.80745000
